functions/OneTimeScripts/validationAgainstOpenDSS_MATLAB/processedData/ieee123/numAreas_1/dssFiles/BranchData.dss
New Line.L1   Phases = 1  Bus1=1  bus2 =2  r1=1e-06  x1=1e-06
New Line.L2   Phases = 1  Bus1=2  bus2 =3  r1=0.0232  x1=0.0475
New Line.L3   Phases = 1  Bus1=3  bus2 =4  r1=0.0441  x1=0.0447
New Line.L4   Phases = 1  Bus1=3  bus2 =5  r1=0.0629  x1=0.0638
New Line.L5   Phases = 1  Bus1=3  bus2 =9  r1=0.0174  x1=0.0356
New Line.L6   Phases = 1  Bus1=5  bus2 =6  r1=0.0503  x1=0.051
New Line.L7   Phases = 1  Bus1=5  bus2 =7  r1=0.0818  x1=0.0829
New Line.L8   Phases = 1  Bus1=7  bus2 =8  r1=0.0629  x1=0.0638
New Line.L9   Phases = 1  Bus1=9  bus2 =10  r1=0.0116  x1=0.0238
New Line.L10   Phases = 1  Bus1=10  bus2 =14  r1=0.0566  x1=0.0574
New Line.L11   Phases = 1  Bus1=10  bus2 =11  r1=0.0566  x1=0.0574
New Line.L12   Phases = 1  Bus1=10  bus2 =15  r1=0.0174  x1=0.0356
New Line.L13   Phases = 1  Bus1=11  bus2 =126  r1=1e-06  x1=1e-06
New Line.L14   Phases = 1  Bus1=126  bus2 =16  r1=1e-06  x1=1e-06
New Line.L15   Phases = 1  Bus1=15  bus2 =36  r1=0.0378  x1=0.0383
New Line.L16   Phases = 1  Bus1=15  bus2 =20  r1=0.0478  x1=0.098
New Line.L17   Phases = 1  Bus1=16  bus2 =13  r1=0.0629  x1=0.0638
New Line.L18   Phases = 1  Bus1=16  bus2 =12  r1=0.0629  x1=0.0638
New Line.L19   Phases = 1  Bus1=17  bus2 =18  r1=0.0944  x1=0.0957
New Line.L20   Phases = 1  Bus1=17  bus2 =19  r1=0.0881  x1=0.0893
New Line.L21   Phases = 1  Bus1=20  bus2 =21  r1=0.0629  x1=0.0638
New Line.L22   Phases = 1  Bus1=20  bus2 =23  r1=0.0174  x1=0.0356
New Line.L23   Phases = 1  Bus1=21  bus2 =22  r1=0.0818  x1=0.0829
New Line.L24   Phases = 1  Bus1=23  bus2 =24  r1=0.1322  x1=0.134
New Line.L25   Phases = 1  Bus1=23  bus2 =25  r1=0.0145  x1=0.0297
New Line.L26   Phases = 1  Bus1=25  bus2 =26  r1=0.1385  x1=0.1404
New Line.L27   Phases = 1  Bus1=25  bus2 =27  r1=0.0159  x1=0.0327
New Line.L28   Phases = 1  Bus1=27  bus2 =127  r1=1e-06  x1=1e-06
New Line.L29   Phases = 1  Bus1=127  bus2 =28  r1=0.0203  x1=0.0455
New Line.L30   Phases = 1  Bus1=27  bus2 =30  r1=0.0116  x1=0.0238
New Line.L31   Phases = 1  Bus1=28  bus2 =29  r1=0.0159  x1=0.0358
New Line.L32   Phases = 1  Bus1=28  bus2 =33  r1=0.0566  x1=0.0574
New Line.L33   Phases = 1  Bus1=29  bus2 =35  r1=0.1259  x1=0.1276
New Line.L34   Phases = 1  Bus1=30  bus2 =31  r1=0.0174  x1=0.0356
New Line.L35   Phases = 1  Bus1=31  bus2 =32  r1=0.0203  x1=0.0416
New Line.L36   Phases = 1  Bus1=32  bus2 =119  r1=0.0116  x1=0.0238
New Line.L37   Phases = 1  Bus1=33  bus2 =34  r1=0.0755  x1=0.0766
New Line.L38   Phases = 1  Bus1=36  bus2 =17  r1=0.0252  x1=0.0255
New Line.L39   Phases = 1  Bus1=37  bus2 =38  r1=0.0377  x1=0.0845
New Line.L40   Phases = 1  Bus1=37  bus2 =42  r1=0.0145  x1=0.0297
New Line.L41   Phases = 1  Bus1=38  bus2 =39  r1=0.0755  x1=0.0766
New Line.L42   Phases = 1  Bus1=38  bus2 =40  r1=0.0629  x1=0.0638
New Line.L43   Phases = 1  Bus1=40  bus2 =41  r1=0.0818  x1=0.0829
New Line.L44   Phases = 1  Bus1=42  bus2 =43  r1=0.0818  x1=0.0829
New Line.L45   Phases = 1  Bus1=42  bus2 =44  r1=0.0145  x1=0.0297
New Line.L46   Phases = 1  Bus1=44  bus2 =45  r1=0.1259  x1=0.1276
New Line.L47   Phases = 1  Bus1=44  bus2 =46  r1=0.0116  x1=0.0238
New Line.L48   Phases = 1  Bus1=46  bus2 =47  r1=0.0503  x1=0.051
New Line.L49   Phases = 1  Bus1=46  bus2 =49  r1=0.0145  x1=0.0297
New Line.L50   Phases = 1  Bus1=47  bus2 =48  r1=0.0755  x1=0.0766
New Line.L51   Phases = 1  Bus1=49  bus2 =50  r1=0.0087  x1=0.0178
New Line.L52   Phases = 1  Bus1=49  bus2 =51  r1=0.0145  x1=0.0297
New Line.L53   Phases = 1  Bus1=51  bus2 =52  r1=0.0145  x1=0.0297
New Line.L54   Phases = 1  Bus1=52  bus2 =53  r1=0.0145  x1=0.0297
New Line.L55   Phases = 1  Bus1=54  bus2 =55  r1=0.0116  x1=0.0238
New Line.L56   Phases = 1  Bus1=55  bus2 =56  r1=0.0072  x1=0.0148
New Line.L57   Phases = 1  Bus1=56  bus2 =57  r1=0.0159  x1=0.0327
New Line.L58   Phases = 1  Bus1=56  bus2 =59  r1=0.0203  x1=0.0416
New Line.L59   Phases = 1  Bus1=57  bus2 =58  r1=0.0159  x1=0.0327
New Line.L60   Phases = 1  Bus1=59  bus2 =60  r1=0.0629  x1=0.0638
New Line.L61   Phases = 1  Bus1=59  bus2 =62  r1=0.0435  x1=0.0891
New Line.L62   Phases = 1  Bus1=60  bus2 =61  r1=0.0629  x1=0.0638
New Line.L63   Phases = 1  Bus1=62  bus2 =63  r1=0.0319  x1=0.0653
New Line.L64   Phases = 1  Bus1=62  bus2 =64  r1=0.048  x1=0.0229
New Line.L65   Phases = 1  Bus1=64  bus2 =65  r1=0.0336  x1=0.016
New Line.L66   Phases = 1  Bus1=65  bus2 =66  r1=0.0672  x1=0.032
New Line.L67   Phases = 1  Bus1=66  bus2 =67  r1=0.0816  x1=0.0389
New Line.L68   Phases = 1  Bus1=67  bus2 =68  r1=0.0624  x1=0.0297
New Line.L69   Phases = 1  Bus1=69  bus2 =70  r1=0.0503  x1=0.051
New Line.L70   Phases = 1  Bus1=69  bus2 =74  r1=0.0159  x1=0.0327
New Line.L71   Phases = 1  Bus1=69  bus2 =99  r1=0.0145  x1=0.0297
New Line.L72   Phases = 1  Bus1=70  bus2 =71  r1=0.0692  x1=0.0702
New Line.L73   Phases = 1  Bus1=71  bus2 =72  r1=0.0818  x1=0.0829
New Line.L74   Phases = 1  Bus1=72  bus2 =73  r1=0.0692  x1=0.0702
New Line.L75   Phases = 1  Bus1=74  bus2 =75  r1=0.0692  x1=0.0702
New Line.L76   Phases = 1  Bus1=74  bus2 =78  r1=0.0116  x1=0.0238
New Line.L77   Phases = 1  Bus1=75  bus2 =76  r1=0.0881  x1=0.0893
New Line.L78   Phases = 1  Bus1=76  bus2 =77  r1=0.1007  x1=0.1021
New Line.L79   Phases = 1  Bus1=78  bus2 =79  r1=0.0232  x1=0.0475
New Line.L80   Phases = 1  Bus1=78  bus2 =88  r1=0.0406  x1=0.0831
New Line.L81   Phases = 1  Bus1=79  bus2 =80  r1=0.0058  x1=0.0119
New Line.L82   Phases = 1  Bus1=80  bus2 =81  r1=0.013  x1=0.0267
New Line.L83   Phases = 1  Bus1=80  bus2 =82  r1=0.0275  x1=0.0564
New Line.L84   Phases = 1  Bus1=82  bus2 =83  r1=0.0101  x1=0.0208
New Line.L85   Phases = 1  Bus1=83  bus2 =84  r1=0.0145  x1=0.0297
New Line.L86   Phases = 1  Bus1=83  bus2 =86  r1=0.1699  x1=0.1723
New Line.L87   Phases = 1  Bus1=84  bus2 =85  r1=0.0145  x1=0.0297
New Line.L88   Phases = 1  Bus1=86  bus2 =87  r1=0.1196  x1=0.1212
New Line.L89   Phases = 1  Bus1=88  bus2 =89  r1=0.0261  x1=0.0534
New Line.L90   Phases = 1  Bus1=89  bus2 =90  r1=0.0441  x1=0.0447
New Line.L91   Phases = 1  Bus1=89  bus2 =91  r1=0.0159  x1=0.0327
New Line.L92   Phases = 1  Bus1=91  bus2 =92  r1=0.0566  x1=0.0574
New Line.L93   Phases = 1  Bus1=91  bus2 =93  r1=0.013  x1=0.0267
New Line.L94   Phases = 1  Bus1=93  bus2 =94  r1=0.0755  x1=0.0766
New Line.L95   Phases = 1  Bus1=93  bus2 =95  r1=0.013  x1=0.0267
New Line.L96   Phases = 1  Bus1=95  bus2 =96  r1=0.0692  x1=0.0702
New Line.L97   Phases = 1  Bus1=95  bus2 =97  r1=0.0174  x1=0.0356
New Line.L98   Phases = 1  Bus1=97  bus2 =98  r1=0.0503  x1=0.051
New Line.L99   Phases = 1  Bus1=99  bus2 =100  r1=0.0159  x1=0.0327
New Line.L100   Phases = 1  Bus1=100  bus2 =101  r1=0.0319  x1=0.0653
New Line.L101   Phases = 1  Bus1=101  bus2 =102  r1=0.0174  x1=0.0356
New Line.L102   Phases = 1  Bus1=102  bus2 =123  r1=0.0464  x1=0.095
New Line.L103   Phases = 1  Bus1=103  bus2 =104  r1=0.0566  x1=0.0574
New Line.L104   Phases = 1  Bus1=103  bus2 =107  r1=0.0159  x1=0.0327
New Line.L105   Phases = 1  Bus1=104  bus2 =105  r1=0.0818  x1=0.0829
New Line.L106   Phases = 1  Bus1=105  bus2 =106  r1=0.1762  x1=0.1786
New Line.L107   Phases = 1  Bus1=107  bus2 =108  r1=0.0566  x1=0.0574
New Line.L108   Phases = 1  Bus1=107  bus2 =110  r1=0.0188  x1=0.0386
New Line.L109   Phases = 1  Bus1=108  bus2 =109  r1=0.1448  x1=0.1467
New Line.L110   Phases = 1  Bus1=110  bus2 =111  r1=0.1133  x1=0.1148
New Line.L111   Phases = 1  Bus1=110  bus2 =121  r1=0.05797  x1=0.11876
New Line.L112   Phases = 1  Bus1=111  bus2 =112  r1=0.0755  x1=0.0766
New Line.L113   Phases = 1  Bus1=112  bus2 =113  r1=0.1448  x1=0.1467
New Line.L114   Phases = 1  Bus1=112  bus2 =114  r1=0.0315  x1=0.0319
New Line.L115   Phases = 1  Bus1=114  bus2 =115  r1=0.1322  x1=0.134
New Line.L116   Phases = 1  Bus1=115  bus2 =116  r1=0.0818  x1=0.0829
New Line.L117   Phases = 1  Bus1=118  bus2 =37  r1=0.0217  x1=0.0445
New Line.L118   Phases = 1  Bus1=117  bus2 =54  r1=0.0232  x1=0.0475
New Line.L119   Phases = 1  Bus1=53  bus2 =120  r1=0.029  x1=0.0594
New Line.L120   Phases = 1  Bus1=125  bus2 =128  r1=1e-06  x1=1e-06
New Line.L121   Phases = 1  Bus1=128  bus2 =69  r1=0.0203  x1=0.0416
New Line.L122   Phases = 1  Bus1=124  bus2 =103  r1=0.0145  x1=0.0297
New Line.L123   Phases = 1  Bus1=15  bus2 =117  r1=1e-06  x1=1e-06
New Line.L124   Phases = 1  Bus1=20  bus2 =118  r1=1e-06  x1=1e-06
New Line.L125   Phases = 1  Bus1=62  bus2 =125  r1=1e-06  x1=1e-06
New Line.L126   Phases = 1  Bus1=99  bus2 =124  r1=1e-06  x1=1e-06
New Line.L127   Phases = 1  Bus1=63  bus2 =122  r1=0.0001  x1=0.0001
